Version 4
SHEET 1 2600 888
WIRE 1136 -1200 1088 -1200
WIRE 1264 -1200 1136 -1200
WIRE 1408 -1200 1264 -1200
WIRE 2128 -1200 2080 -1200
WIRE 2256 -1200 2128 -1200
WIRE 2400 -1200 2256 -1200
WIRE 1136 -1184 1136 -1200
WIRE 1408 -1184 1408 -1200
WIRE 2128 -1184 2128 -1200
WIRE 2400 -1184 2400 -1200
WIRE 1088 -1152 1088 -1200
WIRE 2080 -1152 2080 -1200
WIRE 1024 -1104 992 -1104
WIRE 1136 -1104 1136 -1120
WIRE 1136 -1104 1024 -1104
WIRE 2016 -1104 1984 -1104
WIRE 2128 -1104 2128 -1120
WIRE 2128 -1104 2016 -1104
WIRE 1136 -1088 1136 -1104
WIRE 1264 -1088 1264 -1200
WIRE 2128 -1088 2128 -1104
WIRE 2256 -1088 2256 -1200
WIRE 1024 -1024 1024 -1104
WIRE 1056 -1024 1024 -1024
WIRE 1408 -1024 1408 -1120
WIRE 1408 -1024 1344 -1024
WIRE 1520 -1024 1408 -1024
WIRE 2016 -1024 2016 -1104
WIRE 2048 -1024 2016 -1024
WIRE 2400 -1024 2400 -1120
WIRE 2400 -1024 2336 -1024
WIRE 2512 -1024 2400 -1024
WIRE 1520 -1008 1520 -1024
WIRE 2512 -1008 2512 -1024
WIRE 1024 -896 1024 -1024
WIRE 1056 -896 1024 -896
WIRE 1408 -896 1344 -896
WIRE 2016 -896 2016 -1024
WIRE 2048 -896 2016 -896
WIRE 2400 -896 2336 -896
WIRE 1136 -816 1136 -832
WIRE 1136 -816 1072 -816
WIRE 2128 -816 2128 -832
WIRE 2128 -816 2064 -816
WIRE 1072 -800 1072 -816
WIRE 1136 -800 1136 -816
WIRE 2064 -800 2064 -816
WIRE 2128 -800 2128 -816
WIRE 1072 -704 1072 -736
WIRE 1136 -704 1136 -720
WIRE 1136 -704 1072 -704
WIRE 1264 -704 1264 -832
WIRE 1264 -704 1136 -704
WIRE 2064 -704 2064 -736
WIRE 2128 -704 2128 -720
WIRE 2128 -704 2064 -704
WIRE 2256 -704 2256 -832
WIRE 2256 -704 2128 -704
WIRE 1136 -688 1136 -704
WIRE 2128 -688 2128 -704
WIRE 240 -624 240 -656
WIRE 1024 -624 1024 -896
WIRE 1408 -624 1408 -896
WIRE 1408 -624 1024 -624
WIRE 2016 -624 2016 -896
WIRE 2400 -624 2400 -896
WIRE 2400 -624 2016 -624
WIRE 240 -512 240 -544
WIRE 336 -512 240 -512
WIRE 336 -496 336 -512
WIRE 240 -480 240 -512
WIRE 928 -480 880 -480
WIRE 976 -480 928 -480
WIRE 1184 -480 976 -480
WIRE 1920 -480 1872 -480
WIRE 1968 -480 1920 -480
WIRE 2176 -480 1968 -480
WIRE 976 -416 976 -480
WIRE 1184 -416 1184 -480
WIRE 1968 -416 1968 -480
WIRE 2176 -416 2176 -480
WIRE 240 -320 240 -400
WIRE 928 -304 928 -480
WIRE 1056 -304 928 -304
WIRE 1408 -304 1408 -352
WIRE 1408 -304 1312 -304
WIRE 1552 -304 1408 -304
WIRE 1920 -304 1920 -480
WIRE 2048 -304 1920 -304
WIRE 2400 -304 2400 -352
WIRE 2400 -304 2304 -304
WIRE 2544 -304 2400 -304
WIRE 1408 -288 1408 -304
WIRE 2400 -288 2400 -304
WIRE 1184 -176 1184 -192
WIRE 1184 -176 1088 -176
WIRE 2176 -176 2176 -192
WIRE 2176 -176 2080 -176
WIRE 1088 -160 1088 -176
WIRE 1184 -160 1184 -176
WIRE 2080 -160 2080 -176
WIRE 2176 -160 2176 -176
WIRE 1088 -64 1088 -96
WIRE 1184 -64 1184 -80
WIRE 1184 -64 1088 -64
WIRE 2080 -64 2080 -96
WIRE 2176 -64 2176 -80
WIRE 2176 -64 2080 -64
WIRE 1184 -48 1184 -64
WIRE 2176 -48 2176 -64
FLAG 336 -496 0
FLAG 240 -656 Plus27p6
FLAG 240 -320 Minus27p6
FLAG 1088 -1152 0
FLAG 992 -1104 Minus27p6
FLAG 1136 -688 0
FLAG 1408 -1024 Vee1
FLAG 1520 -928 0
FLAG 976 -352 0
FLAG 1408 -224 0
FLAG 1184 -48 0
FLAG 880 -480 Plus27p6
FLAG 1408 -352 Vcc1
FLAG 1552 -224 0
FLAG 2080 -1152 0
FLAG 1984 -1104 Minus27p6
FLAG 2128 -688 0
FLAG 2400 -1024 Vee2
FLAG 2512 -928 0
FLAG 1968 -352 0
FLAG 2400 -224 0
FLAG 2176 -48 0
FLAG 1872 -480 Plus27p6
FLAG 2400 -352 Vcc2
FLAG 2544 -224 0
DATAFLAG 1408 -1008 ""
SYMBOL Misc\\battery 240 -640 R0
WINDOW 123 0 0 Left 0
WINDOW 39 40 56 Left 2
SYMATTR InstName V1
SYMATTR Value 27.6
SYMBOL Misc\\battery 240 -496 R0
WINDOW 123 0 0 Left 0
WINDOW 39 42 65 Left 2
SYMATTR InstName V2
SYMATTR Value 27.6
SYMBOL PowerProducts\\LT3090 1200 -960 R0
SYMATTR InstName U9
SYMBOL polcap 1120 -1184 R0
WINDOW 3 24 56 Left 2
SYMATTR Value 10µ
SYMATTR InstName C1
SYMATTR Description Capacitor
SYMATTR Type cap
SYMATTR SpiceLine V=63 Irms=370m Rser=0.38 Lser=0
SYMBOL res 1120 -816 R0
SYMATTR InstName R20
SYMATTR Value 523K
SYMBOL polcap 1392 -1184 R0
WINDOW 3 24 56 Left 2
SYMATTR Value 10µ
SYMATTR InstName C3
SYMATTR Description Capacitor
SYMATTR Type cap
SYMATTR SpiceLine V=63 Irms=370m Rser=0.38 Lser=0
SYMBOL res 1504 -1024 R0
SYMATTR InstName R21
SYMATTR Value 10K
SYMBOL PowerProducts\\LT3080-1 1184 -304 R0
SYMATTR InstName U10
SYMBOL polcap 960 -416 R0
WINDOW 3 24 56 Left 2
SYMATTR Value 10µ
SYMATTR InstName C4
SYMATTR Description Capacitor
SYMATTR Type cap
SYMATTR SpiceLine V=63 Irms=370m Rser=0.38 Lser=0
SYMBOL polcap 1392 -288 R0
WINDOW 3 24 56 Left 2
SYMATTR Value 10µ
SYMATTR InstName C5
SYMATTR Description Capacitor
SYMATTR Type cap
SYMATTR SpiceLine V=63 Irms=370m Rser=0.38 Lser=0
SYMBOL res 1168 -176 R0
SYMATTR InstName R22
SYMATTR Value 2.61Meg
SYMBOL res 1536 -320 R0
SYMATTR InstName R1
SYMATTR Value 10K
SYMBOL cap 1056 -800 R0
SYMATTR InstName C2
SYMATTR Value .1µ
SYMBOL cap 1072 -160 R0
SYMATTR InstName C6
SYMATTR Value .018µ
SYMBOL PowerProducts\\LT3090 2192 -960 R0
SYMATTR InstName U1
SYMBOL polcap 2112 -1184 R0
WINDOW 3 24 56 Left 2
SYMATTR Value 10µ
SYMATTR InstName C7
SYMATTR Description Capacitor
SYMATTR Type cap
SYMATTR SpiceLine V=63 Irms=370m Rser=0.38 Lser=0
SYMBOL res 2112 -816 R0
SYMATTR InstName R2
SYMATTR Value 133K
SYMBOL polcap 2384 -1184 R0
WINDOW 3 24 56 Left 2
SYMATTR Value 10µ
SYMATTR InstName C8
SYMATTR Description Capacitor
SYMATTR Type cap
SYMATTR SpiceLine V=63 Irms=370m Rser=0.38 Lser=0
SYMBOL res 2496 -1024 R0
SYMATTR InstName R3
SYMATTR Value 10K
SYMBOL PowerProducts\\LT3080-1 2176 -304 R0
SYMATTR InstName U2
SYMBOL polcap 1952 -416 R0
WINDOW 3 24 56 Left 2
SYMATTR Value 10µ
SYMATTR InstName C9
SYMATTR Description Capacitor
SYMATTR Type cap
SYMATTR SpiceLine V=63 Irms=370m Rser=0.38 Lser=0
SYMBOL polcap 2384 -288 R0
WINDOW 3 24 56 Left 2
SYMATTR Value 10µ
SYMATTR InstName C10
SYMATTR Description Capacitor
SYMATTR Type cap
SYMATTR SpiceLine V=63 Irms=370m Rser=0.38 Lser=0
SYMBOL res 2160 -176 R0
SYMATTR InstName R4
SYMATTR Value 665k
SYMBOL res 2528 -320 R0
SYMATTR InstName R5
SYMATTR Value 5K
SYMBOL cap 2048 -800 R0
SYMATTR InstName C11
SYMATTR Value .39µ
SYMBOL cap 2064 -160 R0
SYMATTR InstName C12
SYMATTR Value .068µ
TEXT 672 -880 Left 2 !.op 0 1 .000 startup
