Version 4
SHEET 1 880 696
WIRE 592 -80 592 -112
WIRE 352 -64 352 -96
WIRE -96 32 -96 -16
WIRE 64 48 64 0
WIRE 64 48 -80 48
WIRE 352 48 352 16
WIRE 400 48 352 48
WIRE 592 48 592 0
WIRE 592 48 400 48
WIRE -432 64 -688 64
WIRE -400 64 -432 64
WIRE -272 64 -272 0
WIRE -272 64 -320 64
WIRE -176 64 -272 64
WIRE -128 64 -176 64
WIRE 400 64 400 48
WIRE -688 80 -688 64
WIRE -32 80 -80 80
WIRE 352 80 352 48
WIRE 592 80 592 48
WIRE -272 96 -272 64
WIRE -592 112 -640 112
WIRE -528 112 -528 0
WIRE -432 128 -432 64
WIRE -432 128 -512 128
WIRE -96 128 -96 96
WIRE -592 144 -592 112
WIRE -560 144 -592 144
WIRE -432 160 -512 160
WIRE -688 224 -688 176
WIRE -688 224 -864 224
WIRE -432 224 -432 160
WIRE -272 224 -272 176
WIRE -272 224 -432 224
WIRE -176 224 -176 64
WIRE -144 224 -176 224
WIRE -32 224 -32 80
WIRE -32 224 -64 224
WIRE -16 224 -32 224
WIRE 96 224 64 224
WIRE 592 224 592 160
WIRE 352 240 352 160
WIRE 96 256 96 224
WIRE -528 272 -528 176
WIRE -688 288 -688 224
WIRE -688 416 -688 368
WIRE -272 512 -272 224
WIRE -272 656 -272 592
FLAG 400 64 0
FLAG 352 -96 Vcc
FLAG 352 240 Vee
FLAG -96 -16 Vcc
FLAG 96 256 0
FLAG 592 -112 CmdVoltagePlus
FLAG 592 224 CmdVoltageMinus
FLAG 64 0 CmdVoltagePlus
FLAG -272 656 0
FLAG -688 416 0
FLAG -864 224 Current
FLAG -272 0 StimulusVoltage
FLAG -528 0 Vee
FLAG -528 272 Vcc
FLAG -96 128 Vee
SYMBOL AutoGenerated\\ADA4522 -80 64 R0
WINDOW 0 -104 -90 Bottom 2
WINDOW 3 64 -66 Top 2
SYMATTR InstName U1
SYMBOL Misc\\battery 352 -80 R0
WINDOW 123 0 0 Left 0
WINDOW 39 40 56 Left 2
SYMATTR SpiceLine Rser=0.1
SYMATTR InstName V1
SYMATTR Value +24
SYMBOL Misc\\battery 352 64 R0
WINDOW 123 0 0 Left 0
WINDOW 39 42 65 Left 2
SYMATTR SpiceLine Rser=0.1
SYMATTR InstName V2
SYMATTR Value +24
SYMBOL res -48 208 R90
WINDOW 0 0 56 VBottom 2
WINDOW 3 32 56 VTop 2
SYMATTR InstName R1
SYMATTR Value 20K
SYMBOL res 80 208 R90
WINDOW 0 0 56 VBottom 2
WINDOW 3 32 56 VTop 2
SYMATTR InstName R2
SYMATTR Value 20K
SYMBOL Misc\\battery 592 -96 R0
WINDOW 123 0 0 Left 0
WINDOW 39 0 0 Left 0
SYMATTR InstName V3
SYMATTR Value 10
SYMBOL Misc\\battery 592 64 R0
WINDOW 0 24 104 Left 2
WINDOW 3 24 16 Left 2
WINDOW 123 0 0 Left 0
WINDOW 39 0 0 Left 0
SYMATTR InstName V4
SYMATTR Value 10
SYMBOL res -288 80 R0
SYMATTR InstName R3
SYMATTR Value 10K
SYMBOL res -288 496 R0
SYMATTR InstName R4
SYMATTR Value 85Meg
SYMBOL res -304 48 R90
WINDOW 0 0 56 VBottom 2
WINDOW 3 32 56 VTop 2
SYMATTR InstName R5
SYMATTR Value 10K
SYMBOL AutoGenerated\\ADA4522 -512 144 M180
WINDOW 0 8 -56 Bottom 2
SYMATTR InstName U2
SYMBOL res -704 272 R0
SYMATTR InstName R6
SYMATTR Value 10K
SYMBOL pjf -640 176 R180
SYMATTR InstName J1
TEXT -968 680 Left 2 !.tran 0 1 .001
