Version 4
SHEET 1 880 696
WIRE -576 -128 -592 -128
WIRE -448 -128 -576 -128
WIRE -640 -112 -688 -112
WIRE -576 -96 -592 -96
WIRE -496 -96 -576 -96
WIRE 592 -80 592 -112
WIRE 352 -64 352 -96
WIRE -688 -16 -688 -112
WIRE -688 -16 -736 -16
WIRE -64 48 -80 48
WIRE 64 48 64 0
WIRE 64 48 -64 48
WIRE 352 48 352 16
WIRE 448 48 352 48
WIRE 592 48 592 0
WIRE 592 48 448 48
WIRE -688 64 -688 -16
WIRE -496 64 -496 -96
WIRE -496 64 -688 64
WIRE -448 64 -448 -128
WIRE -272 64 -272 0
WIRE -272 64 -448 64
WIRE -176 64 -272 64
WIRE -128 64 -176 64
WIRE 448 64 448 48
WIRE -64 80 -80 80
WIRE -32 80 -64 80
WIRE 352 80 352 48
WIRE 592 80 592 48
WIRE -272 96 -272 64
WIRE -496 192 -688 192
WIRE -272 208 -272 176
WIRE -272 208 -448 208
WIRE -176 224 -176 64
WIRE -144 224 -176 224
WIRE -32 224 -32 80
WIRE -32 224 -64 224
WIRE -16 224 -32 224
WIRE 96 224 64 224
WIRE 592 224 592 160
WIRE 352 240 352 160
WIRE -688 256 -688 192
WIRE -688 256 -736 256
WIRE 96 256 96 224
WIRE -576 352 -592 352
WIRE -496 352 -496 192
WIRE -496 352 -576 352
WIRE -688 368 -688 256
WIRE -640 368 -688 368
WIRE -576 384 -592 384
WIRE -448 384 -448 208
WIRE -448 384 -576 384
WIRE -272 512 -272 208
WIRE -272 656 -272 592
FLAG 448 64 0
FLAG 352 -96 Vcc
FLAG 352 240 Vee
FLAG -96 96 Vcc
FLAG 96 256 0
FLAG 592 -112 CmdVoltagePlus
FLAG 592 224 CmdVoltageMinus
FLAG 64 0 CmdVoltageMinus
FLAG -272 656 0
FLAG -272 0 StimulusVoltage
FLAG -608 -144 Vee
FLAG -608 -80 Vcc
FLAG -96 32 Vee
FLAG -608 400 Vee
FLAG -608 336 Vcc
FLAG -736 -16 OutHigh
FLAG -736 256 OutLow
SYMBOL Misc\\battery 352 -80 R0
WINDOW 123 0 0 Left 0
WINDOW 39 40 56 Left 2
SYMATTR SpiceLine Rser=0
SYMATTR InstName V1
SYMATTR Value +27.5
SYMBOL Misc\\battery 352 64 R0
WINDOW 123 0 0 Left 0
WINDOW 39 42 65 Left 2
SYMATTR SpiceLine Rser=0
SYMATTR InstName V2
SYMATTR Value +27.5
SYMBOL res -48 208 R90
WINDOW 0 0 56 VBottom 2
WINDOW 3 32 56 VTop 2
SYMATTR InstName R1
SYMATTR Value 2K
SYMBOL res 80 208 R90
WINDOW 0 0 56 VBottom 2
WINDOW 3 32 56 VTop 2
SYMATTR InstName R2
SYMATTR Value 2K
SYMBOL Misc\\battery 592 -96 R0
WINDOW 123 0 0 Left 0
WINDOW 39 0 0 Left 0
SYMATTR InstName V3
SYMATTR Value 10
SYMBOL Misc\\battery 592 64 R0
WINDOW 0 24 104 Left 2
WINDOW 3 24 16 Left 2
WINDOW 123 0 0 Left 0
WINDOW 39 0 0 Left 0
SYMATTR InstName V4
SYMATTR Value 10
SYMBOL res -288 80 R0
SYMATTR InstName R3
SYMATTR Value 10K
SYMBOL res -288 496 R0
SYMATTR InstName R4
SYMATTR Value 85Meg
SYMBOL Opamps\\ADA4522-1 -96 128 R180
SYMATTR InstName U1
SYMBOL Opamps\\ADA4522-1 -608 -48 R180
SYMATTR InstName U2
SYMBOL Opamps\\ADA4522-1 -608 304 M0
SYMATTR InstName U4
TEXT -968 680 Left 2 !.tran 0 1 .001
