Version 4
SHEET 1 1624 888
WIRE 1136 -1200 1088 -1200
WIRE 1264 -1200 1136 -1200
WIRE 1408 -1200 1264 -1200
WIRE 1136 -1184 1136 -1200
WIRE 1408 -1184 1408 -1200
WIRE 1088 -1152 1088 -1200
WIRE 1024 -1104 992 -1104
WIRE 1136 -1104 1136 -1120
WIRE 1136 -1104 1024 -1104
WIRE 1136 -1088 1136 -1104
WIRE 1264 -1088 1264 -1200
WIRE 1024 -1024 1024 -1104
WIRE 1056 -1024 1024 -1024
WIRE 1408 -1024 1408 -1120
WIRE 1408 -1024 1344 -1024
WIRE 1568 -1024 1408 -1024
WIRE 1568 -944 1568 -1024
WIRE 1024 -896 1024 -1024
WIRE 1056 -896 1024 -896
WIRE 1408 -896 1344 -896
WIRE 1136 -816 1136 -832
WIRE 1136 -816 1072 -816
WIRE 1072 -800 1072 -816
WIRE 1136 -800 1136 -816
WIRE 1072 -704 1072 -736
WIRE 1136 -704 1136 -720
WIRE 1136 -704 1072 -704
WIRE 1264 -704 1264 -832
WIRE 1264 -704 1136 -704
WIRE 1136 -688 1136 -704
WIRE 480 -640 480 -672
WIRE 240 -624 240 -656
WIRE 1024 -624 1024 -896
WIRE 1408 -624 1408 -896
WIRE 1408 -624 1024 -624
WIRE 240 -512 240 -544
WIRE 336 -512 240 -512
WIRE 480 -512 480 -560
WIRE 480 -512 336 -512
WIRE 336 -496 336 -512
WIRE 240 -480 240 -512
WIRE 480 -480 480 -512
WIRE 480 -336 480 -400
WIRE 240 -320 240 -400
FLAG 336 -496 0
FLAG 240 -656 Vcc
FLAG 240 -320 Minus27p6
FLAG 480 -672 CmdVoltagePlus
FLAG 480 -336 CmdVoltageMinus
FLAG 1088 -1152 0
FLAG 992 -1104 Minus27p6
FLAG 1136 -688 0
FLAG 1408 -1024 Vee
FLAG 1568 -864 0
SYMBOL Misc\\battery 240 -640 R0
WINDOW 123 0 0 Left 0
WINDOW 39 40 56 Left 2
SYMATTR SpiceLine Rser=0.1
SYMATTR InstName V1
SYMATTR Value +27.5
SYMBOL Misc\\battery 240 -496 R0
WINDOW 123 0 0 Left 0
WINDOW 39 42 65 Left 2
SYMATTR SpiceLine Rser=0.1
SYMATTR InstName V2
SYMATTR Value +27.6
SYMBOL Misc\\battery 480 -656 R0
WINDOW 123 0 0 Left 0
WINDOW 39 0 0 Left 0
SYMATTR InstName V3
SYMATTR Value 5
SYMBOL Misc\\battery 480 -496 R0
WINDOW 0 24 104 Left 2
WINDOW 3 24 16 Left 2
WINDOW 123 0 0 Left 0
WINDOW 39 0 0 Left 0
SYMATTR InstName V4
SYMATTR Value 5
SYMBOL PowerProducts\\LT3090 1200 -960 R0
SYMATTR InstName U9
SYMBOL polcap 1120 -1184 R0
WINDOW 3 24 56 Left 2
SYMATTR InstName C1
SYMATTR Value 56µ
SYMATTR Description Capacitor
SYMATTR Type cap
SYMATTR SpiceLine V=63 Irms=370m Rser=0.38 Lser=0 mfg="Panasonic" pn="ECA1JFQ560" type="Al electrolytic"
SYMBOL res 1120 -816 R0
SYMATTR InstName R20
SYMATTR Value 523
SYMBOL cap 1056 -800 R0
SYMATTR InstName C2
SYMATTR Value 0.1µ
SYMBOL polcap 1392 -1184 R0
WINDOW 3 24 56 Left 2
SYMATTR InstName C3
SYMATTR Value 56µ
SYMATTR Description Capacitor
SYMATTR Type cap
SYMATTR SpiceLine V=63 Irms=370m Rser=0.38 Lser=0 mfg="Panasonic" pn="ECA1JFQ560" type="Al electrolytic"
SYMBOL res 1552 -960 R0
SYMATTR InstName R1
SYMATTR Value 5K
TEXT 206 -80 Left 2 !.tran 1
